# functional simulator specification
-gpgpu_ptx_instruction_classification 0
-gpgpu_ptx_sim_mode 0
-gpgpu_ptx_force_max_capability 20 
-save_embedded_ptx 1 


# SASS execution (only supported with CUDA >= 4.0)
-gpgpu_ptx_convert_to_ptxplus 0
-gpgpu_ptx_save_converted_ptxplus 0

# high level architecture configuration
-gpgpu_n_clusters 15
-gpgpu_n_cores_per_cluster 1
-gpgpu_n_mem 6
-gpgpu_n_sub_partition_per_mchannel 1 

# Fermi clock domains
#-gpgpu_clock_domains <Core Clock>:<Interconnect Clock>:<L2 Clock>:<DRAM Clock>
# In Fermi, each pipeline has 16 execution units, so the Core clock needs to be divided
# by 2. (GPGPU-Sim simulates a warp (32 threads) in a single cycle). 1400/2 = 700
-gpgpu_clock_domains 700.0:1400.0:700.0:924.0

# shader core pipeline config
-gpgpu_shader_registers 32768

# This implies a maximum of 48 warps/SM
-gpgpu_shader_core_pipeline 1536:32 
-gpgpu_shader_cta 8
-gpgpu_simd_model 1 

# Fermi has two schedulers per core
-gpgpu_num_sched_per_core 2
# Two Level Scheduler with active and pending pools
#-gpgpu_scheduler two_level_active:6:0:1
# Loose round robbin scheduler
#-gpgpu_scheduler lrr
# Greedy then oldest scheduler
-gpgpu_scheduler gto

-gpgpu_max_insn_issue_per_warp 1

# enable operand collector 
-gpgpu_operand_collector_num_units_sp 6
-gpgpu_operand_collector_num_units_sfu 8
-gpgpu_operand_collector_num_in_ports_sp 2
-gpgpu_operand_collector_num_out_ports_sp 2
-gpgpu_num_reg_banks 16

# Pipeline widths and number of FUs
# ID_OC_SP,ID_OC_SFU,ID_OC_MEM,OC_EX_SP,OC_EX_SFU,OC_EX_MEM,EX_WB
-gpgpu_pipeline_widths 2,1,1,2,1,1,2
-gpgpu_num_sp_units 2
-gpgpu_num_sfu_units 1

# Instruction latencies and initiation intervals
# "ADD,MAX,MUL,MAD,DIV"
-ptx_opcode_latency_int 4,13,4,5,145
-ptx_opcode_initiation_int 1,2,2,1,8
-ptx_opcode_latency_fp 4,13,4,5,39
-ptx_opcode_initiation_fp 1,2,1,1,4
-ptx_opcode_latency_dp 8,19,8,8,330
-ptx_opcode_initiation_dp 8,16,8,8,130


# In Fermi, the cache and shared memory can be configured to 16kb:48kb(default) or 48kb:16kb
# <nsets>:<bsize>:<assoc>,<rep>:<wr>:<alloc>:<wr_alloc>,<mshr>:<N>:<merge>,<mq>:**<fifo_entry>
# ** Optional parameter - Required when mshr_type==Texture Fifo
#-gpgpu_cache:dl1  32:128:4,L:L:m:N,A:32:8,8
#-gpgpu_shmem_size 49152

# The alternative configuration for fermi in case cudaFuncCachePreferL1 is selected
# Specialized cache for logging 
-gpgpu_cache:dl1  64:128:6,L:L:m:L,A:32:8,8:0,128,H
-gpgpu_shmem_size 16384

-gmem_skip_L1D 1  # Global access skip L1 cache 

# 64 sets, each 128 bytes 16-way for each memory sub partition. This gives 786KB L2 cache
-gpgpu_cache:dl2 64:128:16,L:B:m:W,A:32:32,4:0,64
-gpgpu_cache:dl2_texture_only 0 

-gpgpu_cache:il1 4:128:4,L:R:f:N,A:2:32,4
-gpgpu_tex_cache:l1 4:128:24,L:R:m:N,F:128:4,128:2
-gpgpu_const_cache:l1 64:64:2,L:R:f:N,A:2:32,4

# shared memory bankconflict detection 
-gpgpu_shmem_num_banks 32
-gpgpu_shmem_limited_broadcast 0
-gpgpu_shmem_warp_parts 1

# interconnection
-network_mode 1 
-inter_config_file config_fermi_islip.icnt

# memory partition latency config 
-rop_latency 120
-dram_latency 100

# dram model config
-gpgpu_dram_scheduler 1
-gpgpu_frfcfs_dram_sched_queue_size 16
-gpgpu_dram_return_queue_size 116

# for Fermi, bus width is 384bits, this is 8 bytes (4 bytes at each DRAM chip) per memory partition
-gpgpu_n_mem_per_ctrlr 2
-gpgpu_dram_buswidth 4
-gpgpu_dram_burst_length 8
-dram_data_command_freq_ratio 4  # GDDR5 is QDR
-gpgpu_mem_address_mask 1
-gpgpu_mem_addr_mapping dramid@8;00000000.00000000.00000000.00000000.0000RRRR.RRRRRRRR.BBBBCCCC.CCSSSSSS

# GDDR5 timing from hynix H5GQ1H24AFR
# to disable bank groups, set nbkgrp to 1 and tCCDL and tRTPL to 0
-gpgpu_dram_timing_opt "nbk=16:CCD=2:RRD=6:RCD=12:RAS=28:RP=12:RC=40:
                        CL=12:WL=4:CDLR=5:WR=12:nbkgrp=4:CCDL=3:RTPL=2"

# stat collection
-gpgpu_memlatency_stat 14 
-gpgpu_runtime_stat 500
-enable_ptx_file_line_stats 1
-visualizer_enabled 0

# power model configs
-power_simulation_enabled 1
-gpuwattch_xml_file gpuwattch_gtx480.xml

# tracing functionality
#-trace_enabled 1
#-trace_components WARP_SCHEDULER,SCOREBOARD
#-trace_sampling_core 0

############################
## tm manager options 
#-tm_uarch_model 30
# signature-based conflict detection 
-tm_bloomfilter_sig_size 1024
-tm_bloomfilter_thread_hash_size 32  
-tm_access_word_size 4 
-tm_check_bloomfilter_correctness 0 
-tm_lazy_conflict_detection 1 

# ring TM options 
-tm_use_ring_tm 0 
-tm_ring_tm_eager_cd 0 
-tm_ring_tm_version_read 1 

# valued-based conflict detection 
-tm_use_value_based_tm 1 
-tm_timeout_validation 100000

-tm_enable_access_mode 0 

# KILO TM timing model defaults 
-no_tx_log_gen 0 
-skip_tx_log_walker 0
-cu_dummy_mode 0 
-cu_gen_L2_acc 3 
-cu_rop_latency 115
-timing_mode_vb_commit 0
-timing_mode_core_side_commit 0

-cu_check_rs_version 0 
-cu_use_bloomfilter 0 
-cu_bloomfilter_size 64
-cu_bloomfilter_n_func 4

-cu_commit_ack_traffic 1 

-cu_input_queue_length 64 

-cu_fcd_mode 1 
-cu_delayed_fcd_cd_mode 0 

-tlw_fast_log_read 0 
-tlw_prioritize_ack 0 

-cu_alloc_max_timeout 20000

# coherence profiling option (off for now)
-coh_model 0 -coh_tm_only 1 -coh_tm_flush_cache 1 -gpgpu_coherence_cache:l0 64:4:16,L:R:f:N,A:32:8,8

# Concurrency Control - 2 warps per core 
-tm_warp_scoreboard_token 1 
-scb_tm_token_cnt 2 
-tm_serial_pdom_stack 0  # set to 1 to allow serialize transaction execution within a warp 

# Ideal TM
#-config idealtm.config

# Kilo TM - Baseline Version
-config kilotm-base.config 

# WarpTM 
-config warptm.config

# TCD
-config tcd.config 

